Version 4.1
SHEET 1 1148 680
WIRE 480 -336 480 -352
WIRE 480 -336 400 -336
WIRE 480 -320 480 -336
WIRE 400 -256 400 -336
WIRE 480 -208 480 -240
WIRE 1008 -144 1008 -160
WIRE 400 -112 400 -192
WIRE 480 -112 480 -128
WIRE 480 -112 400 -112
WIRE 480 -80 480 -112
WIRE 1008 -48 1008 -64
WIRE 256 0 208 0
WIRE 304 0 256 0
WIRE 432 0 384 0
WIRE 256 32 256 0
WIRE 800 32 800 -16
WIRE 1008 48 1008 32
WIRE 256 144 256 112
WIRE 480 144 480 16
WIRE 800 144 800 112
WIRE 1008 160 1008 128
FLAG 256 144 0
FLAG 480 144 0
FLAG 800 144 0
FLAG 1008 160 0
FLAG 800 -16 M_PWM
FLAG 1008 -160 V_BAT
FLAG 480 -352 V_BAT
FLAG 208 0 M_PWM
SYMBOL Misc\\EuropeanResistor 240 16 R0
SYMATTR InstName R1
SYMATTR Value 10k
SYMBOL Misc\\EuropeanResistor 400 -16 R90
WINDOW 0 5 56 VBottom 2
WINDOW 3 27 56 VTop 2
SYMATTR InstName R2
SYMATTR Value 100
SYMBOL voltage 800 16 R0
WINDOW 3 -111 161 Left 1
WINDOW 123 0 0 Left 0
WINDOW 39 0 0 Left 0
SYMATTR InstName V1
SYMATTR Value PULSE(0 3.3 0 500n 500n 16u 33u 10)
SYMBOL voltage 1008 -64 R0
WINDOW 123 0 0 Left 0
WINDOW 39 0 0 Left 0
SYMATTR InstName V2
SYMATTR Value 4
SYMBOL Misc\\EuropeanResistor 464 -336 R0
SYMATTR InstName R3
SYMATTR Value 2.1
SYMBOL ind 464 -224 R0
SYMATTR InstName L1
SYMATTR Value 20”
SYMATTR SpiceLine Rser=1m
SYMBOL diode 416 -192 R180
WINDOW 0 24 64 Left 2
WINDOW 3 24 0 Left 1
SYMATTR InstName D1
SYMATTR Value SD1206T040S2R0
SYMBOL ind 992 32 R0
SYMATTR InstName L2
SYMATTR Value 50n
SYMATTR SpiceLine Rser=1m
SYMBOL ind 992 -160 R0
SYMATTR InstName L3
SYMATTR Value 50n
SYMATTR SpiceLine Rser=1m
SYMBOL nmos 432 -80 R0
SYMATTR InstName M1
SYMATTR Value AP9465GEM
TEXT 112 272 Left 2 !.include AO3400.mod
TEXT 112 304 Left 2 !.tran 0 100u 0 10u
TEXT 520 -224 Left 2 ;motor simulation
TEXT 112 336 Left 2 !.model SD1206T040S2R0 D(Is=50u Rs=0.08 N=1.05 Cjo=115p Bv=40 Ibv=1m Eg=0.69)
